<?xml version="1.0" encoding="UTF-8"?>

<!-- generated on 2025-05-06 08:14:54 by Eclipse SUMO netconvert Version 1.22.0
<netconvertConfiguration xmlns:xsi="http://www.w3.org/2001/XMLSchema-instance" xsi:noNamespaceSchemaLocation="http://sumo.dlr.de/xsd/netconvertConfiguration.xsd">

    <input>
        <sumo-net-file value="onramp.net.xml"/>
        <node-files value="onramp.nod.xml"/>
        <edge-files value="onramp.edg.xml"/>
        <type-files value="onramp.typ.xml"/>
    </input>

    <processing>
        <geometry.min-radius.fix.railways value="false"/>
        <geometry.max-grade.fix value="false"/>
        <offset.disable-normalization value="true"/>
    </processing>

    <junctions>
        <no-turnarounds value="true"/>
    </junctions>

</netconvertConfiguration>
-->

<net version="1.20" junctionCornerDetail="5" limitTurnSpeed="5.50" xmlns:xsi="http://www.w3.org/2001/XMLSchema-instance" xsi:noNamespaceSchemaLocation="http://sumo.dlr.de/xsd/net_file.xsd">

    <location netOffset="0.00,0.00" convBoundary="0.00,-50.00,500.00,0.00" origBoundary="0.00,-50.00,500.00,0.00" projParameter="!"/>

    <type id="highway" numLanes="2"/>

    <edge id=":B_0" function="internal">
        <lane id=":B_0_0" index="0" speed="13.89" length="15.06" shape="284.34,-9.62 287.37,-7.92 290.24,-6.37 293.67,-5.24 298.36,-4.80"/>
    </edge>
    <edge id=":B_1" function="internal">
        <lane id=":B_1_0" index="0" speed="13.89" length="15.16" shape="283.20,-4.80 298.36,-4.80"/>
        <lane id=":B_1_1" index="1" speed="13.89" length="15.16" shape="283.20,-1.60 298.36,-1.60"/>
    </edge>

    <edge id="AB" from="A" to="B" priority="1" type="highway">
        <lane id="AB_0" index="0" speed="13.89" length="283.20" shape="0.00,-4.80 283.20,-4.80"/>
        <lane id="AB_1" index="1" speed="13.89" length="283.20" shape="0.00,-1.60 283.20,-1.60"/>
    </edge>
    <edge id="BC" from="B" to="C" priority="1" type="highway">
        <lane id="BC_0" index="0" speed="13.89" length="201.64" shape="298.36,-4.80 500.00,-4.80"/>
        <lane id="BC_1" index="1" speed="13.89" length="201.64" shape="298.36,-1.60 500.00,-1.60"/>
    </edge>
    <edge id="DB" from="D" to="B" priority="3">
        <lane id="DB_0" index="0" speed="13.89" length="93.49" shape="200.72,-51.43 284.34,-9.62"/>
    </edge>

    <tlLogic id="B" type="static" programID="0" offset="0">
        <phase duration="42" state="Grr"/>
        <phase duration="3"  state="yrr"/>
        <phase duration="42" state="rGG"/>
        <phase duration="3"  state="ryy"/>
    </tlLogic>

    <junction id="A" type="dead_end" x="0.00" y="0.00" incLanes="" intLanes="" shape="0.00,0.00 0.00,-6.40"/>
    <junction id="B" type="traffic_light" x="300.00" y="0.00" incLanes="DB_0 AB_0 AB_1" intLanes=":B_0_0 :B_1_0 :B_1_1" shape="298.36,0.00 298.36,-6.40 295.36,-6.53 293.18,-6.91 291.43,-7.54 289.74,-8.44 287.74,-9.61 285.05,-11.05 283.62,-8.19 283.20,-6.40 283.20,0.00">
        <request index="0" response="000" foes="110" cont="0"/>
        <request index="1" response="001" foes="001" cont="0"/>
        <request index="2" response="001" foes="001" cont="0"/>
    </junction>
    <junction id="C" type="dead_end" x="500.00" y="0.00" incLanes="BC_0 BC_1" intLanes="" shape="500.00,-6.40 500.00,0.00"/>
    <junction id="D" type="dead_end" x="200.00" y="-50.00" incLanes="" intLanes="" shape="200.00,-50.00 201.43,-52.86"/>

    <connection from="AB" to="BC" fromLane="0" toLane="0" via=":B_1_0" tl="B" linkIndex="1" dir="s" state="o"/>
    <connection from="AB" to="BC" fromLane="1" toLane="1" via=":B_1_1" tl="B" linkIndex="2" dir="s" state="o"/>
    <connection from="DB" to="BC" fromLane="0" toLane="0" via=":B_0_0" tl="B" linkIndex="0" dir="s" state="O"/>

    <connection from=":B_0" to="BC" fromLane="0" toLane="0" dir="s" state="M"/>
    <connection from=":B_1" to="BC" fromLane="0" toLane="0" dir="s" state="M"/>
    <connection from=":B_1" to="BC" fromLane="1" toLane="1" dir="s" state="M"/>

</net>
