<types>
    <type id="highway" numLanes="2" /> <!-- 120 km/h speed="20" -->
</types>