<routes>
    <route id="route1" edges="AB BC"/>
	<route id="route2" edges="DB BC"/>
    <flow id="flow1" color="500,0,0" begin="0" end= "1000" vehsPerHour="3000" route="route1"/>
	<flow id="flow2" color="0,0,500" begin="0" end= "1000" vehsPerHour="500" route="route2" />
</routes>