<nodes>
    <node id="A" x="0.0" y="0.0" />
    <node id="B" x="+300.0" y="0.0" type="traffic_light"/>
    <node id="C" x="+500.0" y="0.0" />
	<node id="D" x="+200.0" y="-50.0" />
</nodes>