<configuration>
    <input>        
		<net-file value="net.net.xml"/>        
		<route-files value="onramp.rou.xml"/> 
		<additional-files value="onramp.det.xml, onramp.tll.xml"/>
	</input>    
	<time>        
		<begin value="0"/>       
		<end value="1000"/>    
	</time> 
</configuration>