<types>
    <type id="highway" numLanes="2" speed="33.33" /> <!-- 120 km/h speed="20" -->
</types>