<routes>
    <route id="route1" edges="h1 h2 h3"/>
	<route id="route2" edges="r1 h2 h3"/>
    <route id="route3" edges="r2 h3"/>
    <flow id="flow1" color="500,0,0" begin="0" end= "1000" vehsPerHour="3000" route="route1"/>
	<flow id="flow2" color="0,500,0" begin="0" end= "1000" vehsPerHour="500" route="route2" />
    <flow id="flow3" color="0,0,500" begin="0" end= "1000" vehsPerHour="500" route="route3" />
</routes>