<configuration>
    <input>        
		<net-file value="net.net.xml"/>        
		<route-files value="onramp2.rou.xml"/>
		<additional-files value="onramp.det.xml"/>
	</input>    
	<time>        
		<begin value="0"/>       
		<end value="3600"/>
	</time> 
</configuration>