<nodes>
    <node id="H1" x="0.0" y="0.0" />
    <node id="H2" x="+400.0" y="0.0" type="traffic_light"/>
    <node id="H3" x="+800.0" y="0.0" type="traffic_light"/>
	<node id="H4" x="+1000.0" y="0.0" />
    <node id="R1" x="300.0" y="-50.0" />
    <node id="R2" x="700.0" y="-50.0" />
</nodes>