<additional>
    <tlLogic id="H2" type="static" programID="custom" offset="0">
        <phase duration="10" state="GGG"/>
		<phase duration="10" state="rGG"/>
    </tlLogic>
    <tlLogic id="H3" type="static" programID="custom" offset="0">
        <phase duration="10" state="GGG"/>
		<phase duration="10" state="rGG"/>
    </tlLogic>
</additional>